Version 4
SHEET 1 976 680
WIRE 240 -320 192 -320
WIRE 560 -320 496 -320
WIRE 240 -304 240 -320
WIRE 560 -304 560 -320
WIRE 240 -176 240 -224
WIRE 560 -176 560 -224
WIRE 592 -64 480 -64
WIRE 336 -16 208 -16
WIRE 336 0 336 -16
WIRE 480 0 480 -64
WIRE 336 96 336 80
WIRE 336 96 208 96
WIRE 480 144 480 80
FLAG 480 144 0
FLAG 208 -16 in+
IOPIN 208 -16 In
FLAG 208 96 in-
IOPIN 208 96 In
FLAG 240 -176 0
FLAG 560 -176 0
FLAG 192 -320 pos
IOPIN 192 -320 In
FLAG 496 -320 neg
IOPIN 496 -320 In
FLAG 592 -64 out
IOPIN 592 -64 Out
SYMBOL Misc\\Epoly 480 -16 R0
SYMATTR InstName E1
SYMATTR Value value={if(V(in+,in-)>0, V(pos),V(neg))}
SYMBOL res 320 -16 R0
SYMATTR InstName R1
SYMATTR Value 1e6
SYMBOL res 224 -320 R0
SYMATTR InstName R3
SYMATTR Value 1e6
SYMBOL res 544 -320 R0
SYMATTR InstName R2
SYMATTR Value 1e6
