Version 4
SHEET 1 1300 680
WIRE 368 -320 320 -320
WIRE 368 -304 368 -320
WIRE 368 -176 368 -224
WIRE 816 -128 640 -128
WIRE 640 -80 640 -128
WIRE 512 -64 480 -64
WIRE 592 -64 512 -64
WIRE 336 -16 208 -16
WIRE 592 -16 576 -16
WIRE 336 0 336 -16
WIRE 480 0 480 -64
WIRE 576 32 576 -16
WIRE 640 48 640 0
WIRE 816 48 640 48
WIRE 336 96 336 80
WIRE 336 96 208 96
WIRE 480 144 480 80
FLAG 480 144 0
FLAG 208 -16 in+
IOPIN 208 -16 In
FLAG 208 96 in-
IOPIN 208 96 In
FLAG 368 -176 0
FLAG 320 -320 pos
IOPIN 320 -320 In
FLAG 816 -128 col
IOPIN 816 -128 Out
FLAG 816 48 emit
IOPIN 816 48 Out
FLAG 512 -64 node
FLAG 576 32 0
SYMBOL Misc\\Epoly 480 -16 R0
WINDOW 3 20 115 Left 2
SYMATTR Value value={if(V(in+,in-)>0, 0, 1)}
SYMATTR InstName E1
SYMBOL res 320 -16 R0
SYMATTR InstName R1
SYMATTR Value 1e6
SYMBOL res 352 -320 R0
SYMATTR InstName R2
SYMATTR Value 1e6
SYMBOL sw 640 16 M180
SYMATTR InstName S1
SYMATTR Value MySW
TEXT 216 208 Left 2 !.model MySW SW (Ron=10m Roff=10meg Vt=0.5 Vh=-0.2)
