Version 4
SHEET 1 976 680
WIRE 48 -320 -32 -320
WIRE 64 -320 48 -320
WIRE 288 -320 192 -320
WIRE 304 -320 288 -320
WIRE -32 -272 -32 -320
WIRE 192 -272 192 -320
WIRE -32 -128 -32 -192
WIRE 192 -128 192 -192
WIRE 544 -64 480 -64
WIRE 592 -64 544 -64
WIRE 208 0 64 0
WIRE 336 0 208 0
WIRE 480 0 480 -64
WIRE 336 16 336 0
WIRE 64 48 64 0
WIRE 208 112 192 112
WIRE 336 112 336 96
WIRE 336 112 208 112
WIRE 480 144 480 80
WIRE 64 176 64 128
WIRE 192 192 192 112
WIRE 192 336 192 272
FLAG 192 336 0
FLAG 64 176 0
FLAG 480 144 0
FLAG 208 112 in+
FLAG 208 0 in-
FLAG 544 -64 out
FLAG -32 -128 0
FLAG 192 -128 0
FLAG 48 -320 pos
FLAG 288 -320 neg
SYMBOL voltage 64 32 M0
WINDOW 123 0 0 Left 0
WINDOW 39 0 0 Left 0
WINDOW 3 46 61 Left 2
WINDOW 0 54 23 Left 2
SYMATTR Value PULSE(0 10 0 10u 0 0 10u)
SYMATTR InstName Vsw1
SYMBOL voltage 192 176 M0
WINDOW 123 0 0 Left 0
WINDOW 39 0 0 Left 0
WINDOW 0 53 31 Left 2
WINDOW 3 51 57 Left 2
SYMATTR InstName Vref1
SYMATTR Value 5
SYMBOL Misc\\Epoly 480 -16 R0
SYMATTR InstName E1
SYMATTR Value value={if(V(in+,in-)>0, V(pos),V(neg))}
SYMBOL res 320 0 R0
SYMATTR InstName R1
SYMATTR Value 1e6
SYMBOL voltage -32 -288 R0
WINDOW 123 0 0 Left 0
WINDOW 39 0 0 Left 0
SYMATTR InstName V1
SYMATTR Value 15
SYMBOL voltage 192 -288 R0
SYMATTR InstName V2
SYMATTR Value 0
TEXT 424 -208 Left 2 !.tran 100u
