Version 4
SHEET 1 976 680
WIRE 608 -288 528 -288
WIRE 672 -288 608 -288
WIRE 256 -272 160 -272
WIRE 304 -272 256 -272
WIRE 304 -240 304 -272
WIRE 672 -240 672 -288
WIRE 304 -128 304 -160
WIRE 672 -128 672 -160
WIRE 544 -64 480 -64
WIRE 640 -64 544 -64
WIRE 208 0 128 0
WIRE 336 0 208 0
WIRE 480 0 480 -64
WIRE 336 16 336 0
WIRE 224 112 144 112
WIRE 336 112 336 96
WIRE 336 112 224 112
WIRE 480 144 480 80
FLAG 480 144 0
FLAG 224 112 in+
FLAG 208 0 in-
FLAG 544 -64 pwm
FLAG 608 -288 pos
FLAG 256 -272 neg
FLAG 528 -288 pos
IOPIN 528 -288 In
FLAG 160 -272 neg
IOPIN 160 -272 In
FLAG 144 112 in+
IOPIN 144 112 In
FLAG 128 0 in-
IOPIN 128 0 In
FLAG 640 -64 out
IOPIN 640 -64 Out
FLAG 304 -128 0
FLAG 672 -128 0
SYMBOL Misc\\Epoly 480 -16 R0
SYMATTR InstName E1
SYMATTR Value value={if(V(in+,in-)>0, V(pos),V(neg))}
SYMBOL res 320 0 R0
SYMATTR InstName R1
SYMATTR Value 1e6
SYMBOL res 288 -256 R0
SYMATTR InstName R2
SYMATTR Value 1e6
SYMBOL res 656 -256 R0
SYMATTR InstName R3
SYMATTR Value 1e6
